# EC
# Created by mol2_maker.py
#

@<TRIPOS>MOLECULE
EC
10 0
SMALL
NO_CHARGES

@<TRIPOS>ATOM
   1 C1           0.0000      -1.4462      -2.4584 C   
   2 C2          -0.0000       1.4462      -2.4584 C   
   3 H3           1.4618      -2.2803      -3.6429 H   
   4 H4          -1.8417      -2.2420      -2.9501 H   
   5 H5           1.8417       2.2420      -2.9500 H   
   6 H6          -1.4618       2.2804      -3.6429 H   
   7 C7           0.0000       0.0000       1.6103 C   
   8 O8          -0.5381       2.0395       0.1370 O   
   9 O9           0.5381      -2.0395       0.1370 O   
  10 O10          0.0000       0.0000       3.8558 O   
@<TRIPOS>BOND
