# EC
# Created by fchk_mol2.py
#

@<TRIPOS>MOLECULE
EC
10 10
SMALL
NO_CHARGES

@<TRIPOS>ATOM
   1 C1           2.4587      -1.4278      -0.2303 C   
   2 C2           2.4587       1.4278       0.2303 C   
   3 H3           3.6432      -2.4840       1.0800 H   
   4 H4           2.9503      -1.9202      -2.1753 H   
   5 H5           2.9503       1.9201       2.1753 H   
   6 H6           3.6432       2.4840      -1.0800 H   
   7 C7          -1.6100      -0.0000       0.0000 C   
   8 O8          -0.1367       2.0991      -0.2064 O   
   9 O9          -0.1367      -2.0991       0.2064 O   
  10 O10         -3.8555      -0.0000      -0.0000 O   
@<TRIPOS>BOND
    1     1     2    1
    2     1     3    1
    3     1     4    1
    4     1     9    1
    5     2     5    1
    6     2     6    1
    7     2     8    1
    8     7     8   ar
    9     7     9   ar
   10     7    10    2
