# FEC
# Created by fchk_mol2.py
#

@<TRIPOS>MOLECULE
FEC
10 10
SMALL
NO_CHARGES

@<TRIPOS>ATOM
   1 C1           1.3022       2.3405       0.3535 C   
   2 C2           2.0830      -0.3982       0.8187 C   
   3 C3          -2.1281      -0.2377      -0.0324 C   
   4 H4           1.3243       3.4566       2.0889 H   
   5 H5           2.4470       3.2359      -1.1015 H   
   6 H6           3.2052      -0.7558       2.5046 H   
   7 O7          -1.2505       2.1138      -0.5254 O   
   8 O8          -0.2136      -1.6872       0.9920 O   
   9 O9          -4.2135      -0.9655      -0.3796 O   
  10 F10          3.4336      -1.3171      -1.2252 F   
@<TRIPOS>BOND
    1     1     2    1
    2     1     4    1
    3     1     5    1
    4     1     7    1
    5     2     6    1
    6     2     8    1
    7     2    10    1
    8     3     7   ar
    9     3     8   ar
   10     3     9    2
