# NO3
# Created by fchk_mol2.py
#

@<TRIPOS>MOLECULE
NO3
4 3
SMALL
NO_CHARGES

@<TRIPOS>ATOM
   1 N1          -0.0001       0.0000       0.0001 N   
   2 O2          -1.1886       2.0632      -0.0000 O   
   3 O3          -1.1928      -2.0608      -0.0000 O   
   4 O4           2.3814      -0.0024       0.0000 O   
@<TRIPOS>BOND
    1     1     2    2
    2     1     3    2
    3     1     4    2
